REMARK  Name = STI
REMARK  8 active torsions:
REMARK  status: ('A' for Active; 'I' for Inactive)
REMARK    1  A    between atoms: C_3  and  C_7
REMARK    2  A    between atoms: N_13  and  C_14
REMARK    3  A    between atoms: C_15  and  C_37
REMARK    4  A    between atoms: C_18  and  N_20
REMARK    5  A    between atoms: C_21  and  C_22
REMARK    6  A    between atoms: C_25  and  C_28
REMARK    7  A    between atoms: C_28  and  N_29
REMARK    8  A    between atoms: N_32  and  C_33
REMARK                            x       y       z     vdW  Elec       q    Type
REMARK                         _______ _______ _______ _____ _____    ______ ____
ROOT
ATOM      1  C   UNL     1      15.822  54.641  12.322  0.00  0.00    +0.038 A 
ATOM      2  C   UNL     1      15.698  53.772  13.436  0.00  0.00    +0.047 A 
ATOM      3  C   UNL     1      16.678  52.727  13.688  0.00  0.00    +0.035 A 
ATOM      4  C   UNL     1      17.774  52.597  12.786  0.00  0.00    +0.024 A 
ATOM      5  C   UNL     1      17.915  53.471  11.648  0.00  0.00    +0.007 A 
ATOM      6  C   UNL     1      16.950  54.502  11.393  0.00  0.00    -0.029 A 
ATOM      7  C   UNL     1      17.148  55.406  10.154  0.00  0.00    +0.045 C 
ENDROOT
BRANCH   1  11
ATOM      8  C   UNL     1      14.238  59.155  12.712  0.00  0.00    +0.077 A 
ATOM      9  N   UNL     1      14.101  57.840  12.327  0.00  0.00    -0.214 NA
ATOM     10  C   UNL     1      15.067  56.927  12.559  0.00  0.00    +0.220 A 
ATOM     11  N   UNL     1      14.852  55.627  12.128  0.00  0.00    -0.283 N 
ATOM     12  H   UNL     1      14.006  55.396  11.680  0.00  0.00    +0.155 HD
ATOM     13  N   UNL     1      16.232  57.303  13.202  0.00  0.00    -0.223 NA
ATOM     14  C   UNL     1      16.428  58.603  13.615  0.00  0.00    +0.116 A 
ATOM     15  C   UNL     1      15.433  59.579  13.383  0.00  0.00    +0.048 A 
BRANCH   8  20
ATOM     16  C   UNL     1      11.879  62.272  12.570  0.00  0.00    +0.020 A 
ATOM     17  C   UNL     1      10.858  61.734  11.710  0.00  0.00    +0.111 A 
ATOM     18  N   UNL     1      10.961  60.425  11.216  0.00  0.00    -0.263 NA
ATOM     19  C   UNL     1      12.031  59.591  11.525  0.00  0.00    +0.120 A 
ATOM     20  C   UNL     1      13.097  60.070  12.392  0.00  0.00    +0.019 A 
ATOM     21  C   UNL     1      13.002  61.429  12.910  0.00  0.00    +0.013 A 
ENDBRANCH   8  20
ENDBRANCH   1  11
BRANCH   3  22
ATOM     22  N   UNL     1      16.600  51.810  14.798  0.00  0.00    -0.281 N 
ATOM     23  H   UNL     1      17.326  51.148  14.863  0.00  0.00    +0.155 HD
ATOM     24  C   UNL     1      15.629  51.747  15.784  0.00  0.00    +0.248 C 
ATOM     25  O   UNL     1      14.789  52.612  15.983  0.00  0.00    -0.270 OA
BRANCH  24  26
ATOM     26  C   UNL     1      15.595  50.558  16.689  0.00  0.00    +0.037 A 
ATOM     27  C   UNL     1      16.751  49.689  16.748  0.00  0.00    +0.013 A 
ATOM     28  C   UNL     1      16.747  48.568  17.608  0.00  0.00    +0.009 A 
ATOM     29  C   UNL     1      15.600  48.260  18.446  0.00  0.00    -0.003 A 
ATOM     30  C   UNL     1      14.423  49.124  18.396  0.00  0.00    +0.009 A 
ATOM     31  C   UNL     1      14.423  50.268  17.519  0.00  0.00    +0.013 A 
BRANCH  29  32
ATOM     32  C   UNL     1      15.696  47.030  19.368  0.00  0.00    +0.168 C 
BRANCH  32  33
ATOM     33  N   UNL     1      16.917  46.907  20.219  0.00  0.00    +0.246 N 
ATOM     34  H   UNL     1      17.714  46.815  19.589  0.00  0.00    +0.204 HD
ATOM     35  C   UNL     1      16.877  45.658  21.104  0.00  0.00    +0.183 C 
ATOM     36  C   UNL     1      18.172  45.533  21.971  0.00  0.00    +0.183 C 
ATOM     37  N   UNL     1      18.337  46.794  22.821  0.00  0.00    +0.241 N 
ATOM     38  H   UNL     1      17.527  46.906  23.431  0.00  0.00    +0.203 HD
ATOM     39  C   UNL     1      19.522  46.655  23.680  0.00  0.00    +0.191 C 
ATOM     40  C   UNL     1      18.375  48.041  21.949  0.00  0.00    +0.183 C 
ATOM     41  C   UNL     1      17.097  48.140  21.070  0.00  0.00    +0.183 C 
ENDBRANCH  32  33
ENDBRANCH  29  32
ENDBRANCH  24  26
ENDBRANCH   3  22
TORSDOF 6
