REMARK  Name = P59
REMARK  2 active torsions:
REMARK  status: ('A' for Active; 'I' for Inactive)
REMARK    1  A    between atoms: C_7  and  C_8
REMARK    2  A    between atoms: N_18  and  C_19
REMARK                            x       y       z     vdW  Elec       q    Type
REMARK                         _______ _______ _______ _____ _____    ______ ____
ROOT
ATOM      1  C   UNL     1     -19.097  17.872 128.953  0.00  0.00    +0.200 C 
ATOM      2  N   UNL     1     -20.025  19.036 128.928  0.00  0.00    -0.321 N 
ATOM      3  H   UNL     1     -19.985  19.725 129.630  0.00  0.00    +0.148 HD
ATOM      4  C   UNL     1     -20.945  19.131 127.899  0.00  0.00    +0.041 A 
ATOM      5  C   UNL     1     -22.041  19.951 128.048  0.00  0.00    +0.024 A 
ATOM      6  C   UNL     1     -22.985  20.074 127.024  0.00  0.00    +0.002 A 
ATOM      7  C   UNL     1     -22.777  19.369 125.863  0.00  0.00    +0.001 A 
ATOM      8  C   UNL     1     -21.659  18.529 125.705  0.00  0.00    +0.015 A 
ATOM      9  C   UNL     1     -20.758  18.379 126.740  0.00  0.00    +0.058 A 
ATOM     10  C   UNL     1     -19.579  17.649 126.567  0.00  0.00    +0.254 C 
ATOM     11  O   UNL     1     -19.175  17.344 125.429  0.00  0.00    -0.270 OA
ATOM     12  N   UNL     1     -18.713  17.495 127.578  0.00  0.00    -0.244 N 
ENDROOT
BRANCH   1  19
ATOM     13  F   UNL     1     -19.277  17.726 131.586  0.00  0.00    -0.205 F 
ATOM     14  C   UNL     1     -19.752  16.729 130.955  0.00  0.00    +0.130 A 
ATOM     15  C   UNL     1     -20.305  15.662 131.653  0.00  0.00    +0.039 A 
ATOM     16  C   UNL     1     -20.805  14.551 130.997  0.00  0.00    +0.003 A 
ATOM     17  C   UNL     1     -20.772  14.540 129.603  0.00  0.00    +0.001 A 
ATOM     18  C   UNL     1     -20.188  15.611 128.891  0.00  0.00    +0.010 A 
ATOM     19  C   UNL     1     -19.691  16.745 129.568  0.00  0.00    +0.026 A 
ENDBRANCH   1  19
BRANCH  12  20
ATOM     20  C   UNL     1     -17.467  17.059 127.333  0.00  0.00    +0.039 A 
ATOM     21  C   UNL     1     -17.073  15.733 127.305  0.00  0.00    +0.023 A 
ATOM     22  C   UNL     1     -15.720  15.425 127.030  0.00  0.00    +0.002 A 
ATOM     23  C   UNL     1     -14.785  16.441 126.795  0.00  0.00    +0.000 A 
ATOM     24  C   UNL     1     -15.185  17.761 126.816  0.00  0.00    +0.002 A 
ATOM     25  C   UNL     1     -16.514  18.057 127.055  0.00  0.00    +0.023 A 
ENDBRANCH  12  20
TORSDOF 2
