REMARK  Name = P69
REMARK  2 active torsions:
REMARK  status: ('A' for Active; 'I' for Inactive)
REMARK    1  A    between atoms: C_7  and  C_8
REMARK    2  A    between atoms: N_18  and  C_19
REMARK                            x       y       z     vdW  Elec       q    Type
REMARK                         _______ _______ _______ _____ _____    ______ ____
ROOT
ATOM      1  C   UNL     1     -11.690  15.431 130.142  0.00  0.00    +0.200 C 
ATOM      2  N   UNL     1     -11.542  15.232 131.610  0.00  0.00    -0.244 N 
ATOM      3  C   UNL     1     -12.541  14.567 132.225  0.00  0.00    +0.254 C 
ATOM      4  O   UNL     1     -12.478  14.541 133.443  0.00  0.00    -0.270 OA
ATOM      5  C   UNL     1     -13.770  14.348 131.634  0.00  0.00    +0.058 A 
ATOM      6  C   UNL     1     -14.765  13.577 132.210  0.00  0.00    +0.015 A 
ATOM      7  C   UNL     1     -16.043  13.520 131.662  0.00  0.00    +0.001 A 
ATOM      8  C   UNL     1     -16.354  14.267 130.559  0.00  0.00    +0.002 A 
ATOM      9  C   UNL     1     -15.367  15.086 130.009  0.00  0.00    +0.024 A 
ATOM     10  C   UNL     1     -14.114  15.157 130.569  0.00  0.00    +0.041 A 
ATOM     11  N   UNL     1     -13.114  15.953 129.994  0.00  0.00    -0.321 N 
ATOM     12  H   UNL     1     -13.318  16.794 129.525  0.00  0.00    +0.148 HD
ENDROOT
BRANCH   1  15
ATOM     13  F   UNL     1     -11.545  15.278 127.337  0.00  0.00    -0.205 F 
ATOM     14  C   UNL     1     -11.259  14.157 128.075  0.00  0.00    +0.130 A 
ATOM     15  C   UNL     1     -11.336  14.195 129.474  0.00  0.00    +0.026 A 
ATOM     16  C   UNL     1     -11.007  13.015 130.170  0.00  0.00    +0.010 A 
ATOM     17  C   UNL     1     -10.650  11.860 129.498  0.00  0.00    +0.001 A 
ATOM     18  C   UNL     1     -10.570  11.852 128.109  0.00  0.00    +0.003 A 
ATOM     19  C   UNL     1     -10.884  12.997 127.399  0.00  0.00    +0.039 A 
ENDBRANCH   1  15
BRANCH   2  20
ATOM     20  C   UNL     1     -10.472  15.747 132.249  0.00  0.00    +0.039 A 
ATOM     21  C   UNL     1     -10.625  16.335 133.514  0.00  0.00    +0.023 A 
ATOM     22  C   UNL     1      -9.564  16.927 134.197  0.00  0.00    +0.002 A 
ATOM     23  C   UNL     1      -8.314  16.976 133.591  0.00  0.00    +0.000 A 
ATOM     24  C   UNL     1      -8.159  16.443 132.293  0.00  0.00    +0.002 A 
ATOM     25  C   UNL     1      -9.228  15.824 131.627  0.00  0.00    +0.023 A 
ENDBRANCH   2  20
TORSDOF 2
