MODEL 1
REMARK VINA RESULT:   -11.252      0.000      0.000
REMARK INTER + INTRA:         -14.980
REMARK INTER:                 -14.098
REMARK INTRA:                  -0.881
REMARK UNBOUND:                 0.219
REMARK  Name = STI
REMARK  8 active torsions:
REMARK  status: ('A' for Active; 'I' for Inactive)
REMARK    1  A    between atoms: C_3  and  C_7
REMARK    2  A    between atoms: N_13  and  C_14
REMARK    3  A    between atoms: C_15  and  C_37
REMARK    4  A    between atoms: C_18  and  N_20
REMARK    5  A    between atoms: C_21  and  C_22
REMARK    6  A    between atoms: C_25  and  C_28
REMARK    7  A    between atoms: C_28  and  N_29
REMARK    8  A    between atoms: N_32  and  C_33
REMARK                            x       y       z     vdW  Elec       q    Type
REMARK                         _______ _______ _______ _____ _____    ______ ____
ROOT
ATOM      1  C   UNL     1      16.341  55.723  12.936  0.00  0.00    +0.038 A 
ATOM      2  C   UNL     1      16.068  54.888  14.051  0.00  0.00    +0.047 A 
ATOM      3  C   UNL     1      16.548  53.516  14.098  0.00  0.00    +0.035 A 
ATOM      4  C   UNL     1      17.305  53.026  12.995  0.00  0.00    +0.024 A 
ATOM      5  C   UNL     1      17.591  53.860  11.854  0.00  0.00    +0.007 A 
ATOM      6  C   UNL     1      17.118  55.214  11.800  0.00  0.00    -0.029 A 
ATOM      7  C   UNL     1      17.448  56.060  10.548  0.00  0.00    +0.045 C 
ENDROOT
BRANCH   1  11
ATOM      8  C   UNL     1      12.905  58.968  12.098  0.00  0.00    +0.077 A 
ATOM      9  N   UNL     1      14.160  58.599  12.528  0.00  0.00    -0.214 NA
ATOM     10  C   UNL     1      14.580  57.318  12.480  0.00  0.00    +0.220 A 
ATOM     11  N   UNL     1      15.855  57.032  12.943  0.00  0.00    -0.283 N 
ATOM     12  H   UNL     1      16.425  57.761  13.282  0.00  0.00    +0.155 HD
ATOM     13  N   UNL     1      13.743  56.335  11.985  0.00  0.00    -0.223 NA
ATOM     14  C   UNL     1      12.476  56.641  11.536  0.00  0.00    +0.116 A 
ATOM     15  C   UNL     1      12.011  57.974  11.578  0.00  0.00    +0.048 A 
BRANCH   8  20
ATOM     16  C   UNL     1      13.121  62.819  12.748  0.00  0.00    +0.020 A 
ATOM     17  C   UNL     1      11.775  63.178  12.385  0.00  0.00    +0.111 A 
ATOM     18  N   UNL     1      10.870  62.197  11.953  0.00  0.00    -0.263 NA
ATOM     19  C   UNL     1      11.214  60.852  11.856  0.00  0.00    +0.120 A 
ATOM     20  C   UNL     1      12.557  60.420  12.210  0.00  0.00    +0.019 A 
ATOM     21  C   UNL     1      13.508  61.430  12.659  0.00  0.00    +0.013 A 
ENDBRANCH   8  20
ENDBRANCH   1  11
BRANCH   3  22
ATOM     22  N   UNL     1      16.296  52.620  15.199  0.00  0.00    -0.281 N 
ATOM     23  H   UNL     1      16.756  52.832  16.043  0.00  0.00    +0.155 HD
ATOM     24  C   UNL     1      15.484  51.497  15.215  0.00  0.00    +0.248 C 
ATOM     25  O   UNL     1      14.680  51.214  14.339  0.00  0.00    -0.270 OA
BRANCH  24  26
ATOM     26  C   UNL     1      15.567  50.562  16.378  0.00  0.00    +0.037 A 
ATOM     27  C   UNL     1      14.360  50.249  17.113  0.00  0.00    +0.013 A 
ATOM     28  C   UNL     1      14.413  49.356  18.206  0.00  0.00    +0.009 A 
ATOM     29  C   UNL     1      15.660  48.734  18.617  0.00  0.00    -0.003 A 
ATOM     30  C   UNL     1      16.889  49.041  17.889  0.00  0.00    +0.009 A 
ATOM     31  C   UNL     1      16.840  49.953  16.774  0.00  0.00    +0.013 A 
BRANCH  29  32
ATOM     32  C   UNL     1      15.616  47.756  19.806  0.00  0.00    +0.168 C 
BRANCH  32  33
ATOM     33  N   UNL     1      16.914  47.181  20.269  0.00  0.00    +0.246 N 
ATOM     34  H   UNL     1      17.549  47.194  19.470  0.00  0.00    +0.204 HD
ATOM     35  C   UNL     1      16.770  45.726  20.724  0.00  0.00    +0.183 C 
ATOM     36  C   UNL     1      18.142  45.134  21.183  0.00  0.00    +0.183 C 
ATOM     37  N   UNL     1      18.717  45.999  22.306  0.00  0.00    +0.241 N 
ATOM     38  H   UNL     1      18.070  46.013  23.095  0.00  0.00    +0.203 HD
ATOM     39  C   UNL     1      19.979  45.412  22.779  0.00  0.00    +0.191 C 
ATOM     40  C   UNL     1      18.862  47.448  21.863  0.00  0.00    +0.183 C 
ATOM     41  C   UNL     1      17.498  48.017  21.381  0.00  0.00    +0.183 C 
ENDBRANCH  32  33
ENDBRANCH  29  32
ENDBRANCH  24  26
ENDBRANCH   3  22
TORSDOF 6
ENDMDL
MODEL 2
REMARK VINA RESULT:   -10.758      1.685     13.801
REMARK INTER + INTRA:         -14.313
REMARK INTER:                 -14.251
REMARK INTRA:                  -0.062
REMARK UNBOUND:                 0.219
REMARK  Name = STI
REMARK  8 active torsions:
REMARK  status: ('A' for Active; 'I' for Inactive)
REMARK    1  A    between atoms: C_3  and  C_7
REMARK    2  A    between atoms: N_13  and  C_14
REMARK    3  A    between atoms: C_15  and  C_37
REMARK    4  A    between atoms: C_18  and  N_20
REMARK    5  A    between atoms: C_21  and  C_22
REMARK    6  A    between atoms: C_25  and  C_28
REMARK    7  A    between atoms: C_28  and  N_29
REMARK    8  A    between atoms: N_32  and  C_33
REMARK                            x       y       z     vdW  Elec       q    Type
REMARK                         _______ _______ _______ _____ _____    ______ ____
ROOT
ATOM      1  C   UNL     1      16.722  49.116  17.334  0.00  0.00    +0.038 A 
ATOM      2  C   UNL     1      16.839  50.412  16.771  0.00  0.00    +0.047 A 
ATOM      3  C   UNL     1      15.677  51.113  16.248  0.00  0.00    +0.035 A 
ATOM      4  C   UNL     1      14.409  50.466  16.318  0.00  0.00    +0.024 A 
ATOM      5  C   UNL     1      14.272  49.148  16.886  0.00  0.00    +0.007 A 
ATOM      6  C   UNL     1      15.416  48.450  17.401  0.00  0.00    -0.029 A 
ATOM      7  C   UNL     1      15.211  47.037  17.994  0.00  0.00    +0.045 C 
ENDROOT
BRANCH   1  11
ATOM      8  C   UNL     1      19.313  47.197  20.890  0.00  0.00    +0.077 A 
ATOM      9  N   UNL     1      19.117  47.554  19.575  0.00  0.00    -0.214 NA
ATOM     10  C   UNL     1      17.991  48.176  19.166  0.00  0.00    +0.220 A 
ATOM     11  N   UNL     1      17.871  48.489  17.821  0.00  0.00    -0.283 N 
ATOM     12  H   UNL     1      18.604  48.267  17.202  0.00  0.00    +0.155 HD
ATOM     13  N   UNL     1      16.998  48.474  20.080  0.00  0.00    -0.223 NA
ATOM     14  C   UNL     1      17.135  48.146  21.412  0.00  0.00    +0.116 A 
ATOM     15  C   UNL     1      18.303  47.493  21.865  0.00  0.00    +0.048 A 
BRANCH   8  20
ATOM     16  C   UNL     1      22.993  45.884  20.706  0.00  0.00    +0.020 A 
ATOM     17  C   UNL     1      23.021  45.141  21.939  0.00  0.00    +0.111 A 
ATOM     18  N   UNL     1      21.889  45.092  22.766  0.00  0.00    -0.263 NA
ATOM     19  C   UNL     1      20.701  45.741  22.447  0.00  0.00    +0.120 A 
ATOM     20  C   UNL     1      20.601  46.508  21.214  0.00  0.00    +0.019 A 
ATOM     21  C   UNL     1      21.772  46.568  20.347  0.00  0.00    +0.013 A 
ENDBRANCH   8  20
ENDBRANCH   1  11
BRANCH   3  22
ATOM     22  N   UNL     1      15.736  52.427  15.657  0.00  0.00    -0.281 N 
ATOM     23  H   UNL     1      15.408  53.168  16.217  0.00  0.00    +0.155 HD
ATOM     24  C   UNL     1      16.198  52.775  14.398  0.00  0.00    +0.248 C 
ATOM     25  O   UNL     1      16.833  52.031  13.665  0.00  0.00    -0.270 OA
BRANCH  24  26
ATOM     26  C   UNL     1      15.929  54.153  13.885  0.00  0.00    +0.037 A 
ATOM     27  C   UNL     1      17.035  55.076  13.743  0.00  0.00    +0.013 A 
ATOM     28  C   UNL     1      16.806  56.378  13.245  0.00  0.00    +0.009 A 
ATOM     29  C   UNL     1      15.474  56.822  12.867  0.00  0.00    -0.003 A 
ATOM     30  C   UNL     1      14.346  55.905  13.008  0.00  0.00    +0.009 A 
ATOM     31  C   UNL     1      14.575  54.576  13.517  0.00  0.00    +0.013 A 
BRANCH  29  32
ATOM     32  C   UNL     1      15.326  58.252  12.314  0.00  0.00    +0.168 C 
BRANCH  32  33
ATOM     33  N   UNL     1      14.035  58.955  12.575  0.00  0.00    +0.246 N 
ATOM     34  H   UNL     1      13.553  58.436  13.309  0.00  0.00    +0.204 HD
ATOM     35  C   UNL     1      13.127  58.967  11.341  0.00  0.00    +0.183 C 
ATOM     36  C   UNL     1      11.772  59.687  11.639  0.00  0.00    +0.183 C 
ATOM     37  N   UNL     1      12.049  61.112  12.121  0.00  0.00    +0.241 N 
ATOM     38  H   UNL     1      12.558  61.625  11.400  0.00  0.00    +0.203 HD
ATOM     39  C   UNL     1      10.776  61.811  12.346  0.00  0.00    +0.191 C 
ATOM     40  C   UNL     1      12.953  61.110  13.345  0.00  0.00    +0.183 C 
ATOM     41  C   UNL     1      14.285  60.366  13.047  0.00  0.00    +0.183 C 
ENDBRANCH  32  33
ENDBRANCH  29  32
ENDBRANCH  24  26
ENDBRANCH   3  22
TORSDOF 6
ENDMDL
MODEL 3
REMARK VINA RESULT:   -10.440      1.815     13.471
REMARK INTER + INTRA:         -13.883
REMARK INTER:                 -13.416
REMARK INTRA:                  -0.467
REMARK UNBOUND:                 0.219
REMARK  Name = STI
REMARK  8 active torsions:
REMARK  status: ('A' for Active; 'I' for Inactive)
REMARK    1  A    between atoms: C_3  and  C_7
REMARK    2  A    between atoms: N_13  and  C_14
REMARK    3  A    between atoms: C_15  and  C_37
REMARK    4  A    between atoms: C_18  and  N_20
REMARK    5  A    between atoms: C_21  and  C_22
REMARK    6  A    between atoms: C_25  and  C_28
REMARK    7  A    between atoms: C_28  and  N_29
REMARK    8  A    between atoms: N_32  and  C_33
REMARK                            x       y       z     vdW  Elec       q    Type
REMARK                         _______ _______ _______ _____ _____    ______ ____
ROOT
ATOM      1  C   UNL     1      15.155  48.612  19.066  0.00  0.00    +0.038 A 
ATOM      2  C   UNL     1      15.461  49.755  18.283  0.00  0.00    +0.047 A 
ATOM      3  C   UNL     1      14.486  50.320  17.363  0.00  0.00    +0.035 A 
ATOM      4  C   UNL     1      13.208  49.697  17.268  0.00  0.00    +0.024 A 
ATOM      5  C   UNL     1      12.880  48.534  18.055  0.00  0.00    +0.007 A 
ATOM      6  C   UNL     1      13.839  47.971  18.962  0.00  0.00    -0.029 A 
ATOM      7  C   UNL     1      13.436  46.719  19.776  0.00  0.00    +0.045 C 
ENDROOT
BRANCH   1  11
ATOM      8  C   UNL     1      19.546  46.890  19.959  0.00  0.00    +0.077 A 
ATOM      9  N   UNL     1      18.281  47.275  20.345  0.00  0.00    -0.214 NA
ATOM     10  C   UNL     1      17.375  47.734  19.457  0.00  0.00    +0.220 A 
ATOM     11  N   UNL     1      16.129  48.112  19.933  0.00  0.00    -0.283 N 
ATOM     12  H   UNL     1      15.928  48.026  20.893  0.00  0.00    +0.155 HD
ATOM     13  N   UNL     1      17.707  47.825  18.117  0.00  0.00    -0.223 NA
ATOM     14  C   UNL     1      18.954  47.451  17.667  0.00  0.00    +0.116 A 
ATOM     15  C   UNL     1      19.922  46.969  18.576  0.00  0.00    +0.048 A 
BRANCH   8  20
ATOM     16  C   UNL     1      22.286  44.902  21.917  0.00  0.00    +0.020 A 
ATOM     17  C   UNL     1      22.159  45.554  23.194  0.00  0.00    +0.111 A 
ATOM     18  N   UNL     1      21.224  46.584  23.376  0.00  0.00    -0.263 NA
ATOM     19  C   UNL     1      20.385  47.022  22.356  0.00  0.00    +0.120 A 
ATOM     20  C   UNL     1      20.459  46.404  21.041  0.00  0.00    +0.019 A 
ATOM     21  C   UNL     1      21.427  45.334  20.839  0.00  0.00    +0.013 A 
ENDBRANCH   8  20
ENDBRANCH   1  11
BRANCH   3  22
ATOM     22  N   UNL     1      14.742  51.474  16.538  0.00  0.00    -0.281 N 
ATOM     23  H   UNL     1      14.097  52.213  16.616  0.00  0.00    +0.155 HD
ATOM     24  C   UNL     1      15.786  51.669  15.648  0.00  0.00    +0.248 C 
ATOM     25  O   UNL     1      16.781  50.963  15.584  0.00  0.00    -0.270 OA
BRANCH  24  26
ATOM     26  C   UNL     1      15.721  52.824  14.701  0.00  0.00    +0.037 A 
ATOM     27  C   UNL     1      14.590  53.725  14.771  0.00  0.00    +0.013 A 
ATOM     28  C   UNL     1      14.515  54.832  13.897  0.00  0.00    +0.009 A 
ATOM     29  C   UNL     1      15.556  55.095  12.917  0.00  0.00    -0.003 A 
ATOM     30  C   UNL     1      16.703  54.193  12.829  0.00  0.00    +0.009 A 
ATOM     31  C   UNL     1      16.782  53.062  13.719  0.00  0.00    +0.013 A 
BRANCH  29  32
ATOM     32  C   UNL     1      15.400  56.338  12.021  0.00  0.00    +0.168 C 
BRANCH  32  33
ATOM     33  N   UNL     1      14.613  57.482  12.571  0.00  0.00    +0.246 N 
ATOM     34  H   UNL     1      14.210  57.172  13.456  0.00  0.00    +0.204 HD
ATOM     35  C   UNL     1      13.458  57.881  11.649  0.00  0.00    +0.183 C 
ATOM     36  C   UNL     1      12.631  59.064  12.250  0.00  0.00    +0.183 C 
ATOM     37  N   UNL     1      13.559  60.254  12.502  0.00  0.00    +0.241 N 
ATOM     38  H   UNL     1      13.987  60.548  11.624  0.00  0.00    +0.203 HD
ATOM     39  C   UNL     1      12.775  61.388  13.013  0.00  0.00    +0.191 C 
ATOM     40  C   UNL     1      14.712  59.865  13.416  0.00  0.00    +0.183 C 
ATOM     41  C   UNL     1      15.509  58.670  12.824  0.00  0.00    +0.183 C 
ENDBRANCH  32  33
ENDBRANCH  29  32
ENDBRANCH  24  26
ENDBRANCH   3  22
TORSDOF 6
ENDMDL
MODEL 4
REMARK VINA RESULT:   -10.348      2.891     13.636
REMARK INTER + INTRA:         -13.759
REMARK INTER:                 -13.919
REMARK INTRA:                   0.160
REMARK UNBOUND:                 0.219
REMARK  Name = STI
REMARK  8 active torsions:
REMARK  status: ('A' for Active; 'I' for Inactive)
REMARK    1  A    between atoms: C_3  and  C_7
REMARK    2  A    between atoms: N_13  and  C_14
REMARK    3  A    between atoms: C_15  and  C_37
REMARK    4  A    between atoms: C_18  and  N_20
REMARK    5  A    between atoms: C_21  and  C_22
REMARK    6  A    between atoms: C_25  and  C_28
REMARK    7  A    between atoms: C_28  and  N_29
REMARK    8  A    between atoms: N_32  and  C_33
REMARK                            x       y       z     vdW  Elec       q    Type
REMARK                         _______ _______ _______ _____ _____    ______ ____
ROOT
ATOM      1  C   UNL     1      17.889  48.555  18.974  0.00  0.00    +0.038 A 
ATOM      2  C   UNL     1      17.814  49.554  17.969  0.00  0.00    +0.047 A 
ATOM      3  C   UNL     1      16.716  49.582  17.016  0.00  0.00    +0.035 A 
ATOM      4  C   UNL     1      15.708  48.579  17.117  0.00  0.00    +0.024 A 
ATOM      5  C   UNL     1      15.769  47.556  18.131  0.00  0.00    +0.007 A 
ATOM      6  C   UNL     1      16.851  47.521  19.072  0.00  0.00    -0.029 A 
ATOM      7  C   UNL     1      16.869  46.397  20.134  0.00  0.00    +0.045 C 
ENDROOT
BRANCH   1  11
ATOM      8  C   UNL     1      22.314  47.246  20.292  0.00  0.00    +0.077 A 
ATOM      9  N   UNL     1      21.132  47.925  20.484  0.00  0.00    -0.214 NA
ATOM     10  C   UNL     1      20.118  47.851  19.597  0.00  0.00    +0.220 A 
ATOM     11  N   UNL     1      18.966  48.576  19.863  0.00  0.00    -0.283 N 
ATOM     12  H   UNL     1      18.906  49.111  20.687  0.00  0.00    +0.155 HD
ATOM     13  N   UNL     1      20.250  47.076  18.460  0.00  0.00    -0.223 NA
ATOM     14  C   UNL     1      21.407  46.370  18.212  0.00  0.00    +0.116 A 
ATOM     15  C   UNL     1      22.485  46.431  19.124  0.00  0.00    +0.048 A 
BRANCH   8  20
ATOM     16  C   UNL     1      24.839  46.534  23.194  0.00  0.00    +0.020 A 
ATOM     17  C   UNL     1      25.383  47.858  23.340  0.00  0.00    +0.111 A 
ATOM     18  N   UNL     1      24.934  48.906  22.521  0.00  0.00    -0.263 NA
ATOM     19  C   UNL     1      23.958  48.727  21.546  0.00  0.00    +0.120 A 
ATOM     20  C   UNL     1      23.363  47.414  21.347  0.00  0.00    +0.019 A 
ATOM     21  C   UNL     1      23.823  46.318  22.190  0.00  0.00    +0.013 A 
ENDBRANCH   8  20
ENDBRANCH   1  11
BRANCH   3  22
ATOM     22  N   UNL     1      16.592  50.567  15.970  0.00  0.00    -0.281 N 
ATOM     23  H   UNL     1      17.323  50.591  15.311  0.00  0.00    +0.155 HD
ATOM     24  C   UNL     1      15.569  51.482  15.779  0.00  0.00    +0.248 C 
ATOM     25  O   UNL     1      14.495  51.450  16.361  0.00  0.00    -0.270 OA
BRANCH  24  26
ATOM     26  C   UNL     1      15.763  52.584  14.788  0.00  0.00    +0.037 A 
ATOM     27  C   UNL     1      16.865  52.501  13.854  0.00  0.00    +0.013 A 
ATOM     28  C   UNL     1      17.058  53.524  12.898  0.00  0.00    +0.009 A 
ATOM     29  C   UNL     1      16.168  54.671  12.827  0.00  0.00    -0.003 A 
ATOM     30  C   UNL     1      15.053  54.774  13.765  0.00  0.00    +0.009 A 
ATOM     31  C   UNL     1      14.854  53.733  14.742  0.00  0.00    +0.013 A 
BRANCH  29  32
ATOM     32  C   UNL     1      16.444  55.725  11.738  0.00  0.00    +0.168 C 
BRANCH  32  33
ATOM     33  N   UNL     1      15.779  57.053  11.887  0.00  0.00    +0.246 N 
ATOM     34  H   UNL     1      15.938  57.568  11.021  0.00  0.00    +0.204 HD
ATOM     35  C   UNL     1      16.381  57.873  13.032  0.00  0.00    +0.183 C 
ATOM     36  C   UNL     1      15.688  59.268  13.160  0.00  0.00    +0.183 C 
ATOM     37  N   UNL     1      14.185  59.071  13.367  0.00  0.00    +0.241 N 
ATOM     38  H   UNL     1      14.024  58.530  14.217  0.00  0.00    +0.203 HD
ATOM     39  C   UNL     1      13.539  60.380  13.545  0.00  0.00    +0.191 C 
ATOM     40  C   UNL     1      13.579  58.255  12.234  0.00  0.00    +0.183 C 
ATOM     41  C   UNL     1      14.294  56.882  12.097  0.00  0.00    +0.183 C 
ENDBRANCH  32  33
ENDBRANCH  29  32
ENDBRANCH  24  26
ENDBRANCH   3  22
TORSDOF 6
ENDMDL
MODEL 5
REMARK VINA RESULT:    -9.257      3.842      6.705
REMARK INTER + INTRA:         -12.285
REMARK INTER:                 -11.887
REMARK INTRA:                  -0.398
REMARK UNBOUND:                 0.219
REMARK  Name = STI
REMARK  8 active torsions:
REMARK  status: ('A' for Active; 'I' for Inactive)
REMARK    1  A    between atoms: C_3  and  C_7
REMARK    2  A    between atoms: N_13  and  C_14
REMARK    3  A    between atoms: C_15  and  C_37
REMARK    4  A    between atoms: C_18  and  N_20
REMARK    5  A    between atoms: C_21  and  C_22
REMARK    6  A    between atoms: C_25  and  C_28
REMARK    7  A    between atoms: C_28  and  N_29
REMARK    8  A    between atoms: N_32  and  C_33
REMARK                            x       y       z     vdW  Elec       q    Type
REMARK                         _______ _______ _______ _____ _____    ______ ____
ROOT
ATOM      1  C   UNL     1      15.505  50.773  16.416  0.00  0.00    +0.038 A 
ATOM      2  C   UNL     1      16.684  50.684  17.200  0.00  0.00    +0.047 A 
ATOM      3  C   UNL     1      17.153  49.406  17.712  0.00  0.00    +0.035 A 
ATOM      4  C   UNL     1      16.398  48.237  17.404  0.00  0.00    +0.024 A 
ATOM      5  C   UNL     1      15.197  48.309  16.609  0.00  0.00    +0.007 A 
ATOM      6  C   UNL     1      14.728  49.567  16.103  0.00  0.00    -0.029 A 
ATOM      7  C   UNL     1      13.431  49.586  15.262  0.00  0.00    +0.045 C 
ENDROOT
BRANCH   1  11
ATOM      8  C   UNL     1      15.841  54.467  13.370  0.00  0.00    +0.077 A 
ATOM      9  N   UNL     1      15.282  53.818  14.447  0.00  0.00    -0.214 NA
ATOM     10  C   UNL     1      15.729  52.614  14.863  0.00  0.00    +0.220 A 
ATOM     11  N   UNL     1      15.101  52.026  15.950  0.00  0.00    -0.283 N 
ATOM     12  H   UNL     1      14.361  52.497  16.399  0.00  0.00    +0.155 HD
ATOM     13  N   UNL     1      16.778  52.002  14.203  0.00  0.00    -0.223 NA
ATOM     14  C   UNL     1      17.382  52.602  13.119  0.00  0.00    +0.116 A 
ATOM     15  C   UNL     1      16.933  53.861  12.663  0.00  0.00    +0.048 A 
BRANCH   8  20
ATOM     16  C   UNL     1      15.411  58.282  12.621  0.00  0.00    +0.020 A 
ATOM     17  C   UNL     1      14.010  58.283  12.292  0.00  0.00    +0.111 A 
ATOM     18  N   UNL     1      13.272  57.091  12.319  0.00  0.00    -0.263 NA
ATOM     19  C   UNL     1      13.840  55.867  12.659  0.00  0.00    +0.120 A 
ATOM     20  C   UNL     1      15.251  55.794  13.006  0.00  0.00    +0.019 A 
ATOM     21  C   UNL     1      16.029  57.026  12.980  0.00  0.00    +0.013 A 
ENDBRANCH   8  20
ENDBRANCH   1  11
BRANCH   3  22
ATOM     22  N   UNL     1      18.338  49.256  18.520  0.00  0.00    -0.281 N 
ATOM     23  H   UNL     1      18.451  49.911  19.246  0.00  0.00    +0.155 HD
ATOM     24  C   UNL     1      19.336  48.303  18.398  0.00  0.00    +0.248 C 
ATOM     25  O   UNL     1      19.253  47.299  17.706  0.00  0.00    -0.270 OA
BRANCH  24  26
ATOM     26  C   UNL     1      20.604  48.484  19.169  0.00  0.00    +0.037 A 
ATOM     27  C   UNL     1      21.317  49.739  19.060  0.00  0.00    +0.013 A 
ATOM     28  C   UNL     1      22.510  49.937  19.791  0.00  0.00    +0.009 A 
ATOM     29  C   UNL     1      23.047  48.904  20.660  0.00  0.00    -0.003 A 
ATOM     30  C   UNL     1      22.342  47.630  20.779  0.00  0.00    +0.009 A 
ATOM     31  C   UNL     1      21.126  47.423  20.034  0.00  0.00    +0.013 A 
BRANCH  29  32
ATOM     32  C   UNL     1      24.340  49.220  21.435  0.00  0.00    +0.168 C 
BRANCH  32  33
ATOM     33  N   UNL     1      24.203  49.974  22.716  0.00  0.00    +0.246 N 
ATOM     34  H   UNL     1      24.963  49.671  23.326  0.00  0.00    +0.204 HD
ATOM     35  C   UNL     1      22.884  49.661  23.428  0.00  0.00    +0.183 C 
ATOM     36  C   UNL     1      22.767  50.442  24.778  0.00  0.00    +0.183 C 
ATOM     37  N   UNL     1      22.896  51.942  24.510  0.00  0.00    +0.241 N 
ATOM     38  H   UNL     1      22.155  52.243  23.876  0.00  0.00    +0.203 HD
ATOM     39  C   UNL     1      22.728  52.682  25.769  0.00  0.00    +0.191 C 
ATOM     40  C   UNL     1      24.204  52.261  23.799  0.00  0.00    +0.183 C 
ATOM     41  C   UNL     1      24.323  51.458  22.474  0.00  0.00    +0.183 C 
ENDBRANCH  32  33
ENDBRANCH  29  32
ENDBRANCH  24  26
ENDBRANCH   3  22
TORSDOF 6
ENDMDL
MODEL 6
REMARK VINA RESULT:    -8.803      3.178      6.495
REMARK INTER + INTRA:         -11.671
REMARK INTER:                 -11.134
REMARK INTRA:                  -0.537
REMARK UNBOUND:                 0.219
REMARK  Name = STI
REMARK  8 active torsions:
REMARK  status: ('A' for Active; 'I' for Inactive)
REMARK    1  A    between atoms: C_3  and  C_7
REMARK    2  A    between atoms: N_13  and  C_14
REMARK    3  A    between atoms: C_15  and  C_37
REMARK    4  A    between atoms: C_18  and  N_20
REMARK    5  A    between atoms: C_21  and  C_22
REMARK    6  A    between atoms: C_25  and  C_28
REMARK    7  A    between atoms: C_28  and  N_29
REMARK    8  A    between atoms: N_32  and  C_33
REMARK                            x       y       z     vdW  Elec       q    Type
REMARK                         _______ _______ _______ _____ _____    ______ ____
ROOT
ATOM      1  C   UNL     1      15.535  50.797  16.373  0.00  0.00    +0.038 A 
ATOM      2  C   UNL     1      16.707  50.608  17.150  0.00  0.00    +0.047 A 
ATOM      3  C   UNL     1      17.102  49.284  17.605  0.00  0.00    +0.035 A 
ATOM      4  C   UNL     1      16.282  48.174  17.249  0.00  0.00    +0.024 A 
ATOM      5  C   UNL     1      15.087  48.348  16.462  0.00  0.00    +0.007 A 
ATOM      6  C   UNL     1      14.690  49.652  16.011  0.00  0.00    -0.029 A 
ATOM      7  C   UNL     1      13.396  49.780  15.175  0.00  0.00    +0.045 C 
ENDROOT
BRANCH   1  11
ATOM      8  C   UNL     1      15.900  54.500  13.342  0.00  0.00    +0.077 A 
ATOM      9  N   UNL     1      15.395  53.885  14.465  0.00  0.00    -0.214 NA
ATOM     10  C   UNL     1      15.769  52.638  14.822  0.00  0.00    +0.220 A 
ATOM     11  N   UNL     1      15.202  52.089  15.962  0.00  0.00    -0.283 N 
ATOM     12  H   UNL     1      14.558  52.617  16.488  0.00  0.00    +0.155 HD
ATOM     13  N   UNL     1      16.686  51.946  14.053  0.00  0.00    -0.223 NA
ATOM     14  C   UNL     1      17.231  52.508  12.919  0.00  0.00    +0.116 A 
ATOM     15  C   UNL     1      16.855  53.811  12.522  0.00  0.00    +0.048 A 
BRANCH   8  20
ATOM     16  C   UNL     1      15.737  58.364  12.759  0.00  0.00    +0.020 A 
ATOM     17  C   UNL     1      14.330  58.484  12.482  0.00  0.00    +0.111 A 
ATOM     18  N   UNL     1      13.505  57.350  12.489  0.00  0.00    -0.263 NA
ATOM     19  C   UNL     1      13.989  56.074  12.760  0.00  0.00    +0.120 A 
ATOM     20  C   UNL     1      15.402  55.881  13.052  0.00  0.00    +0.019 A 
ATOM     21  C   UNL     1      16.270  57.052  13.046  0.00  0.00    +0.013 A 
ENDBRANCH   8  20
ENDBRANCH   1  11
BRANCH   3  22
ATOM     22  N   UNL     1      18.277  49.032  18.403  0.00  0.00    -0.281 N 
ATOM     23  H   UNL     1      19.072  49.568  18.181  0.00  0.00    +0.155 HD
ATOM     24  C   UNL     1      18.422  48.129  19.443  0.00  0.00    +0.248 C 
ATOM     25  O   UNL     1      17.495  47.548  19.989  0.00  0.00    -0.270 OA
BRANCH  24  26
ATOM     26  C   UNL     1      19.793  47.840  19.962  0.00  0.00    +0.037 A 
ATOM     27  C   UNL     1      20.214  48.447  21.207  0.00  0.00    +0.013 A 
ATOM     28  C   UNL     1      21.501  48.175  21.724  0.00  0.00    +0.009 A 
ATOM     29  C   UNL     1      22.424  47.291  21.032  0.00  0.00    -0.003 A 
ATOM     30  C   UNL     1      22.018  46.674  19.772  0.00  0.00    +0.009 A 
ATOM     31  C   UNL     1      20.707  46.949  19.241  0.00  0.00    +0.013 A 
BRANCH  29  32
ATOM     32  C   UNL     1      23.797  47.037  21.684  0.00  0.00    +0.168 C 
BRANCH  32  33
ATOM     33  N   UNL     1      23.966  45.766  22.448  0.00  0.00    +0.246 N 
ATOM     34  H   UNL     1      23.645  45.008  21.845  0.00  0.00    +0.204 HD
ATOM     35  C   UNL     1      23.111  45.741  23.719  0.00  0.00    +0.183 C 
ATOM     36  C   UNL     1      23.283  44.395  24.495  0.00  0.00    +0.183 C 
ATOM     37  N   UNL     1      24.761  44.188  24.832  0.00  0.00    +0.241 N 
ATOM     38  H   UNL     1      25.093  44.961  25.410  0.00  0.00    +0.203 HD
ATOM     39  C   UNL     1      24.918  42.952  25.611  0.00  0.00    +0.191 C 
ATOM     40  C   UNL     1      25.618  44.214  23.574  0.00  0.00    +0.183 C 
ATOM     41  C   UNL     1      25.417  45.544  22.795  0.00  0.00    +0.183 C 
ENDBRANCH  32  33
ENDBRANCH  29  32
ENDBRANCH  24  26
ENDBRANCH   3  22
TORSDOF 6
ENDMDL
