MODEL 1
REMARK VINA RESULT:   -10.582      0.000      0.000
REMARK INTER + INTRA:         -14.193
REMARK INTER:                 -14.143
REMARK INTRA:                  -0.050
REMARK UNBOUND:                 0.102
REMARK  Name = STI
REMARK  8 active torsions:
REMARK  status: ('A' for Active; 'I' for Inactive)
REMARK    1  A    between atoms: C_3  and  C_7
REMARK    2  A    between atoms: N_13  and  C_14
REMARK    3  A    between atoms: C_15  and  C_37
REMARK    4  A    between atoms: C_18  and  N_20
REMARK    5  A    between atoms: C_21  and  C_22
REMARK    6  A    between atoms: C_25  and  C_28
REMARK    7  A    between atoms: C_28  and  N_29
REMARK    8  A    between atoms: N_32  and  C_33
REMARK                            x       y       z     vdW  Elec       q    Type
REMARK                         _______ _______ _______ _____ _____    ______ ____
ROOT
ATOM      1  C   UNL     1      16.763  49.088  17.294  0.00  0.00    +0.038 A 
ATOM      2  C   UNL     1      16.872  50.388  16.736  0.00  0.00    +0.047 A 
ATOM      3  C   UNL     1      15.711  51.068  16.182  0.00  0.00    +0.035 A 
ATOM      4  C   UNL     1      14.454  50.397  16.217  0.00  0.00    +0.024 A 
ATOM      5  C   UNL     1      14.326  49.076  16.780  0.00  0.00    +0.007 A 
ATOM      6  C   UNL     1      15.467  48.399  17.325  0.00  0.00    -0.029 A 
ATOM      7  C   UNL     1      15.272  46.981  17.910  0.00  0.00    +0.045 C 
ENDROOT
BRANCH   1  11
ATOM      8  C   UNL     1      19.283  47.195  20.914  0.00  0.00    +0.077 A 
ATOM      9  N   UNL     1      19.120  47.558  19.595  0.00  0.00    -0.214 NA
ATOM     10  C   UNL     1      17.995  48.160  19.158  0.00  0.00    +0.220 A 
ATOM     11  N   UNL     1      17.909  48.482  17.812  0.00  0.00    -0.283 N 
ATOM     12  H   UNL     1      18.665  48.280  17.214  0.00  0.00    +0.155 HD
ATOM     13  N   UNL     1      16.967  48.430  20.043  0.00  0.00    -0.223 NA
ATOM     14  C   UNL     1      17.071  48.095  21.375  0.00  0.00    +0.116 A 
ATOM     15  C   UNL     1      18.238  47.462  21.859  0.00  0.00    +0.048 A 
BRANCH   8  20
ATOM     16  C   UNL     1      22.905  45.731  20.726  0.00  0.00    +0.020 A 
ATOM     17  C   UNL     1      23.009  45.233  22.072  0.00  0.00    +0.111 A 
ATOM     18  N   UNL     1      21.943  45.383  22.971  0.00  0.00    -0.263 NA
ATOM     19  C   UNL     1      20.750  46.006  22.618  0.00  0.00    +0.120 A 
ATOM     20  C   UNL     1      20.576  46.530  21.272  0.00  0.00    +0.019 A 
ATOM     21  C   UNL     1      21.678  46.382  20.330  0.00  0.00    +0.013 A 
ENDBRANCH   8  20
ENDBRANCH   1  11
BRANCH   3  22
ATOM     22  N   UNL     1      15.763  52.384  15.595  0.00  0.00    -0.281 N 
ATOM     23  H   UNL     1      15.441  53.123  16.161  0.00  0.00    +0.155 HD
ATOM     24  C   UNL     1      16.209  52.736  14.331  0.00  0.00    +0.248 C 
ATOM     25  O   UNL     1      16.835  51.995  13.588  0.00  0.00    -0.270 OA
BRANCH  24  26
ATOM     26  C   UNL     1      15.933  54.115  13.826  0.00  0.00    +0.037 A 
ATOM     27  C   UNL     1      17.039  55.032  13.652  0.00  0.00    +0.013 A 
ATOM     28  C   UNL     1      16.804  56.336  13.161  0.00  0.00    +0.009 A 
ATOM     29  C   UNL     1      15.464  56.787  12.821  0.00  0.00    -0.003 A 
ATOM     30  C   UNL     1      14.335  55.876  12.995  0.00  0.00    +0.009 A 
ATOM     31  C   UNL     1      14.572  54.545  13.496  0.00  0.00    +0.013 A 
BRANCH  29  32
ATOM     32  C   UNL     1      15.308  58.217  12.272  0.00  0.00    +0.168 C 
BRANCH  32  33
ATOM     33  N   UNL     1      14.022  58.922  12.556  0.00  0.00    +0.246 N 
ATOM     34  H   UNL     1      13.547  58.396  13.289  0.00  0.00    +0.204 HD
ATOM     35  C   UNL     1      13.100  58.950  11.333  0.00  0.00    +0.183 C 
ATOM     36  C   UNL     1      11.751  59.672  11.654  0.00  0.00    +0.183 C 
ATOM     37  N   UNL     1      12.039  61.090  12.149  0.00  0.00    +0.241 N 
ATOM     38  H   UNL     1      12.541  61.610  11.428  0.00  0.00    +0.203 HD
ATOM     39  C   UNL     1      10.770  61.790  12.396  0.00  0.00    +0.191 C 
ATOM     40  C   UNL     1      12.957  61.071  13.362  0.00  0.00    +0.183 C 
ATOM     41  C   UNL     1      14.283  60.327  13.041  0.00  0.00    +0.183 C 
ENDBRANCH  32  33
ENDBRANCH  29  32
ENDBRANCH  24  26
ENDBRANCH   3  22
TORSDOF 6
ENDMDL
MODEL 2
REMARK VINA RESULT:   -10.562      1.843      3.049
REMARK INTER + INTRA:         -14.165
REMARK INTER:                 -14.266
REMARK INTRA:                   0.102
REMARK UNBOUND:                 0.102
REMARK  Name = STI
REMARK  8 active torsions:
REMARK  status: ('A' for Active; 'I' for Inactive)
REMARK    1  A    between atoms: C_3  and  C_7
REMARK    2  A    between atoms: N_13  and  C_14
REMARK    3  A    between atoms: C_15  and  C_37
REMARK    4  A    between atoms: C_18  and  N_20
REMARK    5  A    between atoms: C_21  and  C_22
REMARK    6  A    between atoms: C_25  and  C_28
REMARK    7  A    between atoms: C_28  and  N_29
REMARK    8  A    between atoms: N_32  and  C_33
REMARK                            x       y       z     vdW  Elec       q    Type
REMARK                         _______ _______ _______ _____ _____    ______ ____
ROOT
ATOM      1  C   UNL     1      17.875  48.547  18.981  0.00  0.00    +0.038 A 
ATOM      2  C   UNL     1      17.797  49.548  17.979  0.00  0.00    +0.047 A 
ATOM      3  C   UNL     1      16.694  49.580  17.031  0.00  0.00    +0.035 A 
ATOM      4  C   UNL     1      15.685  48.578  17.135  0.00  0.00    +0.024 A 
ATOM      5  C   UNL     1      15.749  47.553  18.147  0.00  0.00    +0.007 A 
ATOM      6  C   UNL     1      16.836  47.515  19.083  0.00  0.00    -0.029 A 
ATOM      7  C   UNL     1      16.856  46.389  20.143  0.00  0.00    +0.045 C 
ENDROOT
BRANCH   1  11
ATOM      8  C   UNL     1      22.288  47.193  20.296  0.00  0.00    +0.077 A 
ATOM      9  N   UNL     1      21.116  47.891  20.485  0.00  0.00    -0.214 NA
ATOM     10  C   UNL     1      20.096  47.820  19.604  0.00  0.00    +0.220 A 
ATOM     11  N   UNL     1      18.956  48.564  19.865  0.00  0.00    -0.283 N 
ATOM     12  H   UNL     1      18.908  49.110  20.683  0.00  0.00    +0.155 HD
ATOM     13  N   UNL     1      20.213  47.028  18.476  0.00  0.00    -0.223 NA
ATOM     14  C   UNL     1      21.359  46.302  18.232  0.00  0.00    +0.116 A 
ATOM     15  C   UNL     1      22.441  46.360  19.138  0.00  0.00    +0.048 A 
BRANCH   8  20
ATOM     16  C   UNL     1      25.005  48.745  22.643  0.00  0.00    +0.020 A 
ATOM     17  C   UNL     1      25.361  47.560  23.379  0.00  0.00    +0.111 A 
ATOM     18  N   UNL     1      24.730  46.337  23.105  0.00  0.00    -0.263 NA
ATOM     19  C   UNL     1      23.749  46.203  22.128  0.00  0.00    +0.120 A 
ATOM     20  C   UNL     1      23.344  47.360  21.344  0.00  0.00    +0.019 A 
ATOM     21  C   UNL     1      23.991  48.637  21.620  0.00  0.00    +0.013 A 
ENDBRANCH   8  20
ENDBRANCH   1  11
BRANCH   3  22
ATOM     22  N   UNL     1      16.567  50.566  15.987  0.00  0.00    -0.281 N 
ATOM     23  H   UNL     1      17.263  50.551  15.292  0.00  0.00    +0.155 HD
ATOM     24  C   UNL     1      15.584  51.532  15.844  0.00  0.00    +0.248 C 
ATOM     25  O   UNL     1      14.541  51.556  16.479  0.00  0.00    -0.270 OA
BRANCH  24  26
ATOM     26  C   UNL     1      15.782  52.620  14.838  0.00  0.00    +0.037 A 
ATOM     27  C   UNL     1      16.844  52.488  13.863  0.00  0.00    +0.013 A 
ATOM     28  C   UNL     1      17.040  53.497  12.894  0.00  0.00    +0.009 A 
ATOM     29  C   UNL     1      16.194  54.678  12.847  0.00  0.00    -0.003 A 
ATOM     30  C   UNL     1      15.120  54.829  13.826  0.00  0.00    +0.009 A 
ATOM     31  C   UNL     1      14.918  53.803  14.818  0.00  0.00    +0.013 A 
BRANCH  29  32
ATOM     32  C   UNL     1      16.469  55.713  11.741  0.00  0.00    +0.168 C 
BRANCH  32  33
ATOM     33  N   UNL     1      15.825  57.053  11.883  0.00  0.00    +0.246 N 
ATOM     34  H   UNL     1      16.033  57.578  11.033  0.00  0.00    +0.204 HD
ATOM     35  C   UNL     1      16.393  57.841  13.067  0.00  0.00    +0.183 C 
ATOM     36  C   UNL     1      15.725  59.249  13.187  0.00  0.00    +0.183 C 
ATOM     37  N   UNL     1      14.211  59.081  13.325  0.00  0.00    +0.241 N 
ATOM     38  H   UNL     1      14.000  58.531  14.158  0.00  0.00    +0.203 HD
ATOM     39  C   UNL     1      13.585  60.401  13.497  0.00  0.00    +0.191 C 
ATOM     40  C   UNL     1      13.638  58.297  12.153  0.00  0.00    +0.183 C 
ATOM     41  C   UNL     1      14.330  56.911  12.024  0.00  0.00    +0.183 C 
ENDBRANCH  32  33
ENDBRANCH  29  32
ENDBRANCH  24  26
ENDBRANCH   3  22
TORSDOF 6
ENDMDL
