MODEL 1
REMARK VINA RESULT:   -11.143      0.000      0.000
REMARK INTER + INTRA:         -12.672
REMARK INTER:                 -12.317
REMARK INTRA:                  -0.354
REMARK UNBOUND:                -0.226
REMARK  Name = P59
REMARK  2 active torsions:
REMARK  status: ('A' for Active; 'I' for Inactive)
REMARK    1  A    between atoms: C_7  and  C_8
REMARK    2  A    between atoms: N_18  and  C_19
REMARK                            x       y       z     vdW  Elec       q    Type
REMARK                         _______ _______ _______ _____ _____    ______ ____
ROOT
ATOM      1  C   UNL     1     -19.098  18.043 129.323  0.00  0.00    +0.200 C 
ATOM      2  N   UNL     1     -19.951  19.263 129.304  0.00  0.00    -0.321 N 
ATOM      3  H   UNL     1     -19.859  19.951 130.002  0.00  0.00    +0.148 HD
ATOM      4  C   UNL     1     -20.877  19.412 128.287  0.00  0.00    +0.041 A 
ATOM      5  C   UNL     1     -21.917  20.300 128.446  0.00  0.00    +0.024 A 
ATOM      6  C   UNL     1     -22.865  20.478 127.433  0.00  0.00    +0.002 A 
ATOM      7  C   UNL     1     -22.717  19.756 126.273  0.00  0.00    +0.001 A 
ATOM      8  C   UNL     1     -21.656  18.847 126.105  0.00  0.00    +0.015 A 
ATOM      9  C   UNL     1     -20.753  18.645 127.129  0.00  0.00    +0.058 A 
ATOM     10  C   UNL     1     -19.624  17.841 126.945  0.00  0.00    +0.254 C 
ATOM     11  O   UNL     1     -19.255  17.507 125.803  0.00  0.00    -0.270 OA
ATOM     12  N   UNL     1     -18.757  17.637 127.945  0.00  0.00    -0.244 N 
ENDROOT
BRANCH   1  19
ATOM     13  F   UNL     1     -19.047  17.792 131.954  0.00  0.00    -0.205 F 
ATOM     14  C   UNL     1     -19.686  16.883 131.336  0.00  0.00    +0.130 A 
ATOM     15  C   UNL     1     -20.287  15.849 132.045  0.00  0.00    +0.039 A 
ATOM     16  C   UNL     1     -20.966  14.831 131.400  0.00  0.00    +0.003 A 
ATOM     17  C   UNL     1     -21.065  14.883 130.010  0.00  0.00    +0.001 A 
ATOM     18  C   UNL     1     -20.435  15.918 129.285  0.00  0.00    +0.010 A 
ATOM     19  C   UNL     1     -19.754  16.958 129.951  0.00  0.00    +0.026 A 
ENDBRANCH   1  19
BRANCH  12  20
ATOM     20  C   UNL     1     -17.544  17.122 127.686  0.00  0.00    +0.039 A 
ATOM     21  C   UNL     1     -17.235  15.774 127.656  0.00  0.00    +0.023 A 
ATOM     22  C   UNL     1     -15.908  15.380 127.365  0.00  0.00    +0.002 A 
ATOM     23  C   UNL     1     -14.913  16.335 127.118  0.00  0.00    +0.000 A 
ATOM     24  C   UNL     1     -15.228  17.677 127.142  0.00  0.00    +0.002 A 
ATOM     25  C   UNL     1     -16.533  18.058 127.396  0.00  0.00    +0.023 A 
ENDBRANCH  12  20
TORSDOF 2
ENDMDL
MODEL 2
REMARK VINA RESULT:   -10.653      1.506      5.150
REMARK INTER + INTRA:         -12.124
REMARK INTER:                 -11.843
REMARK INTRA:                  -0.281
REMARK UNBOUND:                -0.226
REMARK  Name = P59
REMARK  2 active torsions:
REMARK  status: ('A' for Active; 'I' for Inactive)
REMARK    1  A    between atoms: C_7  and  C_8
REMARK    2  A    between atoms: N_18  and  C_19
REMARK                            x       y       z     vdW  Elec       q    Type
REMARK                         _______ _______ _______ _____ _____    ______ ____
ROOT
ATOM      1  C   UNL     1     -19.961  16.347 128.010  0.00  0.00    +0.200 C 
ATOM      2  N   UNL     1     -18.836  15.595 127.389  0.00  0.00    -0.321 N 
ATOM      3  H   UNL     1     -19.004  14.764 126.887  0.00  0.00    +0.148 HD
ATOM      4  C   UNL     1     -17.550  16.085 127.530  0.00  0.00    +0.041 A 
ATOM      5  C   UNL     1     -16.481  15.245 127.316  0.00  0.00    +0.024 A 
ATOM      6  C   UNL     1     -15.169  15.712 127.444  0.00  0.00    +0.002 A 
ATOM      7  C   UNL     1     -14.981  17.033 127.771  0.00  0.00    +0.001 A 
ATOM      8  C   UNL     1     -16.070  17.897 127.991  0.00  0.00    +0.015 A 
ATOM      9  C   UNL     1     -17.361  17.414 127.907  0.00  0.00    +0.058 A 
ATOM     10  C   UNL     1     -18.458  18.274 128.001  0.00  0.00    +0.254 C 
ATOM     11  O   UNL     1     -18.317  19.507 127.893  0.00  0.00    -0.270 OA
ATOM     12  N   UNL     1     -19.709  17.799 127.932  0.00  0.00    -0.244 N 
ENDROOT
BRANCH   1  19
ATOM     13  F   UNL     1     -20.961  13.993 128.679  0.00  0.00    -0.205 F 
ATOM     14  C   UNL     1     -20.663  14.752 129.655  0.00  0.00    +0.130 A 
ATOM     15  C   UNL     1     -20.878  14.325 130.960  0.00  0.00    +0.039 A 
ATOM     16  C   UNL     1     -20.590  15.137 132.043  0.00  0.00    +0.003 A 
ATOM     17  C   UNL     1     -20.040  16.394 131.794  0.00  0.00    +0.001 A 
ATOM     18  C   UNL     1     -19.843  16.841 130.469  0.00  0.00    +0.010 A 
ATOM     19  C   UNL     1     -20.130  16.002 129.371  0.00  0.00    +0.026 A 
ENDBRANCH   1  19
BRANCH  12  20
ATOM     20  C   UNL     1     -20.735  18.641 127.725  0.00  0.00    +0.039 A 
ATOM     21  C   UNL     1     -21.297  19.469 128.680  0.00  0.00    +0.023 A 
ATOM     22  C   UNL     1     -22.377  20.306 128.312  0.00  0.00    +0.002 A 
ATOM     23  C   UNL     1     -22.880  20.297 127.005  0.00  0.00    +0.000 A 
ATOM     24  C   UNL     1     -22.310  19.475 126.055  0.00  0.00    +0.002 A 
ATOM     25  C   UNL     1     -21.236  18.681 126.410  0.00  0.00    +0.023 A 
ENDBRANCH  12  20
TORSDOF 2
ENDMDL
MODEL 3
REMARK VINA RESULT:   -10.147      5.102      7.822
REMARK INTER + INTRA:         -11.560
REMARK INTER:                 -11.204
REMARK INTRA:                  -0.356
REMARK UNBOUND:                -0.226
REMARK  Name = P59
REMARK  2 active torsions:
REMARK  status: ('A' for Active; 'I' for Inactive)
REMARK    1  A    between atoms: C_7  and  C_8
REMARK    2  A    between atoms: N_18  and  C_19
REMARK                            x       y       z     vdW  Elec       q    Type
REMARK                         _______ _______ _______ _____ _____    ______ ____
ROOT
ATOM      1  C   UNL     1     -13.540  14.126 130.048  0.00  0.00    +0.200 C 
ATOM      2  N   UNL     1     -14.965  14.030 129.625  0.00  0.00    -0.321 N 
ATOM      3  H   UNL     1     -15.552  13.333 129.995  0.00  0.00    +0.148 HD
ATOM      4  C   UNL     1     -15.447  14.941 128.702  0.00  0.00    +0.041 A 
ATOM      5  C   UNL     1     -16.605  14.655 128.014  0.00  0.00    +0.024 A 
ATOM      6  C   UNL     1     -17.122  15.558 127.080  0.00  0.00    +0.002 A 
ATOM      7  C   UNL     1     -16.451  16.741 126.882  0.00  0.00    +0.001 A 
ATOM      8  C   UNL     1     -15.266  17.038 127.582  0.00  0.00    +0.015 A 
ATOM      9  C   UNL     1     -14.740  16.120 128.468  0.00  0.00    +0.058 A 
ATOM     10  C   UNL     1     -13.636  16.438 129.262  0.00  0.00    +0.254 C 
ATOM     11  O   UNL     1     -13.262  17.619 129.398  0.00  0.00    -0.270 OA
ATOM     12  N   UNL     1     -13.120  15.540 130.112  0.00  0.00    -0.244 N 
ENDROOT
BRANCH   1  19
ATOM     13  F   UNL     1     -11.635  12.533 130.952  0.00  0.00    -0.205 F 
ATOM     14  C   UNL     1     -11.701  12.633 129.686  0.00  0.00    +0.130 A 
ATOM     15  C   UNL     1     -10.802  11.939 128.884  0.00  0.00    +0.039 A 
ATOM     16  C   UNL     1     -10.830  12.049 127.505  0.00  0.00    +0.003 A 
ATOM     17  C   UNL     1     -11.813  12.853 126.929  0.00  0.00    +0.001 A 
ATOM     18  C   UNL     1     -12.712  13.580 127.741  0.00  0.00    +0.010 A 
ATOM     19  C   UNL     1     -12.683  13.453 129.146  0.00  0.00    +0.026 A 
ENDBRANCH   1  19
BRANCH  12  20
ATOM     20  C   UNL     1     -12.267  15.935 131.071  0.00  0.00    +0.039 A 
ATOM     21  C   UNL     1     -12.622  16.309 132.355  0.00  0.00    +0.023 A 
ATOM     22  C   UNL     1     -11.609  16.703 133.260  0.00  0.00    +0.002 A 
ATOM     23  C   UNL     1     -10.264  16.723 132.868  0.00  0.00    +0.000 A 
ATOM     24  C   UNL     1      -9.915  16.341 131.590  0.00  0.00    +0.002 A 
ATOM     25  C   UNL     1     -10.905  15.928 130.717  0.00  0.00    +0.023 A 
ENDBRANCH  12  20
TORSDOF 2
ENDMDL
MODEL 4
REMARK VINA RESULT:    -9.887      5.726      9.434
REMARK INTER + INTRA:         -11.268
REMARK INTER:                 -10.926
REMARK INTRA:                  -0.342
REMARK UNBOUND:                -0.226
REMARK  Name = P59
REMARK  2 active torsions:
REMARK  status: ('A' for Active; 'I' for Inactive)
REMARK    1  A    between atoms: C_7  and  C_8
REMARK    2  A    between atoms: N_18  and  C_19
REMARK                            x       y       z     vdW  Elec       q    Type
REMARK                         _______ _______ _______ _____ _____    ______ ____
ROOT
ATOM      1  C   UNL     1     -12.529  13.569 131.124  0.00  0.00    +0.200 C 
ATOM      2  N   UNL     1     -11.822  12.360 130.617  0.00  0.00    -0.321 N 
ATOM      3  H   UNL     1     -11.622  11.607 131.218  0.00  0.00    +0.148 HD
ATOM      4  C   UNL     1     -11.452  12.317 129.285  0.00  0.00    +0.041 A 
ATOM      5  C   UNL     1     -10.485  11.422 128.883  0.00  0.00    +0.024 A 
ATOM      6  C   UNL     1     -10.094  11.349 127.542  0.00  0.00    +0.002 A 
ATOM      7  C   UNL     1     -10.713  12.180 126.640  0.00  0.00    +0.001 A 
ATOM      8  C   UNL     1     -11.701  13.097 127.045  0.00  0.00    +0.015 A 
ATOM      9  C   UNL     1     -12.047  13.193 128.378  0.00  0.00    +0.058 A 
ATOM     10  C   UNL     1     -13.107  14.005 128.789  0.00  0.00    +0.254 C 
ATOM     11  O   UNL     1     -13.931  14.449 127.967  0.00  0.00    -0.270 OA
ATOM     12  N   UNL     1     -13.431  14.106 130.086  0.00  0.00    -0.244 N 
ENDROOT
BRANCH   1  19
ATOM     13  F   UNL     1     -13.017  15.106 133.218  0.00  0.00    -0.205 F 
ATOM     14  C   UNL     1     -11.937  15.364 132.597  0.00  0.00    +0.130 A 
ATOM     15  C   UNL     1     -11.115  16.398 133.028  0.00  0.00    +0.039 A 
ATOM     16  C   UNL     1      -9.948  16.721 132.358  0.00  0.00    +0.003 A 
ATOM     17  C   UNL     1      -9.593  15.955 131.248  0.00  0.00    +0.001 A 
ATOM     18  C   UNL     1     -10.438  14.919 130.792  0.00  0.00    +0.010 A 
ATOM     19  C   UNL     1     -11.621  14.590 131.488  0.00  0.00    +0.026 A 
ENDBRANCH   1  19
BRANCH  12  20
ATOM     20  C   UNL     1     -14.611  14.638 130.442  0.00  0.00    +0.039 A 
ATOM     21  C   UNL     1     -15.019  15.933 130.177  0.00  0.00    +0.023 A 
ATOM     22  C   UNL     1     -16.297  16.353 130.616  0.00  0.00    +0.002 A 
ATOM     23  C   UNL     1     -17.140  15.480 131.314  0.00  0.00    +0.000 A 
ATOM     24  C   UNL     1     -16.732  14.187 131.568  0.00  0.00    +0.002 A 
ATOM     25  C   UNL     1     -15.495  13.771 131.112  0.00  0.00    +0.023 A 
ENDBRANCH  12  20
TORSDOF 2
ENDMDL
MODEL 5
REMARK VINA RESULT:    -9.861      6.357      9.366
REMARK INTER + INTRA:         -11.239
REMARK INTER:                 -10.941
REMARK INTRA:                  -0.298
REMARK UNBOUND:                -0.226
REMARK  Name = P59
REMARK  2 active torsions:
REMARK  status: ('A' for Active; 'I' for Inactive)
REMARK    1  A    between atoms: C_7  and  C_8
REMARK    2  A    between atoms: N_18  and  C_19
REMARK                            x       y       z     vdW  Elec       q    Type
REMARK                         _______ _______ _______ _____ _____    ______ ____
ROOT
ATOM      1  C   UNL     1     -12.394  14.238 130.992  0.00  0.00    +0.200 C 
ATOM      2  N   UNL     1     -12.045  14.515 132.412  0.00  0.00    -0.321 N 
ATOM      3  H   UNL     1     -12.461  14.000 133.141  0.00  0.00    +0.148 HD
ATOM      4  C   UNL     1     -11.124  15.510 132.689  0.00  0.00    +0.041 A 
ATOM      5  C   UNL     1     -11.070  16.045 133.957  0.00  0.00    +0.024 A 
ATOM      6  C   UNL     1     -10.146  17.046 134.270  0.00  0.00    +0.002 A 
ATOM      7  C   UNL     1      -9.286  17.466 133.284  0.00  0.00    +0.001 A 
ATOM      8  C   UNL     1      -9.337  16.924 131.986  0.00  0.00    +0.015 A 
ATOM      9  C   UNL     1     -10.284  15.969 131.676  0.00  0.00    +0.058 A 
ATOM     10  C   UNL     1     -10.278  15.328 130.434  0.00  0.00    +0.254 C 
ATOM     11  O   UNL     1      -9.286  15.393 129.683  0.00  0.00    -0.270 OA
ATOM     12  N   UNL     1     -11.206  14.410 130.131  0.00  0.00    -0.244 N 
ENDROOT
BRANCH   1  19
ATOM     13  F   UNL     1     -14.921  13.828 131.650  0.00  0.00    -0.205 F 
ATOM     14  C   UNL     1     -14.713  14.837 130.904  0.00  0.00    +0.130 A 
ATOM     15  C   UNL     1     -15.778  15.627 130.487  0.00  0.00    +0.039 A 
ATOM     16  C   UNL     1     -15.588  16.714 129.654  0.00  0.00    +0.003 A 
ATOM     17  C   UNL     1     -14.286  17.025 129.264  0.00  0.00    +0.001 A 
ATOM     18  C   UNL     1     -13.203  16.211 129.665  0.00  0.00    +0.010 A 
ATOM     19  C   UNL     1     -13.405  15.110 130.524  0.00  0.00    +0.026 A 
ENDBRANCH   1  19
BRANCH  12  20
ATOM     20  C   UNL     1     -11.027  13.596 129.078  0.00  0.00    +0.039 A 
ATOM     21  C   UNL     1     -11.029  13.989 127.752  0.00  0.00    +0.023 A 
ATOM     22  C   UNL     1     -10.823  13.015 126.747  0.00  0.00    +0.002 A 
ATOM     23  C   UNL     1     -10.626  11.669 127.081  0.00  0.00    +0.000 A 
ATOM     24  C   UNL     1     -10.616  11.284 128.406  0.00  0.00    +0.002 A 
ATOM     25  C   UNL     1     -10.787  12.244 129.386  0.00  0.00    +0.023 A 
ENDBRANCH  12  20
TORSDOF 2
ENDMDL
MODEL 6
REMARK VINA RESULT:    -9.732      5.290      7.730
REMARK INTER + INTRA:         -11.096
REMARK INTER:                 -10.648
REMARK INTRA:                  -0.448
REMARK UNBOUND:                -0.226
REMARK  Name = P59
REMARK  2 active torsions:
REMARK  status: ('A' for Active; 'I' for Inactive)
REMARK    1  A    between atoms: C_7  and  C_8
REMARK    2  A    between atoms: N_18  and  C_19
REMARK                            x       y       z     vdW  Elec       q    Type
REMARK                         _______ _______ _______ _____ _____    ______ ____
ROOT
ATOM      1  C   UNL     1     -12.373  15.717 129.019  0.00  0.00    +0.200 C 
ATOM      2  N   UNL     1     -13.450  16.655 128.597  0.00  0.00    -0.321 N 
ATOM      3  H   UNL     1     -13.233  17.478 128.103  0.00  0.00    +0.148 HD
ATOM      4  C   UNL     1     -14.761  16.347 128.914  0.00  0.00    +0.041 A 
ATOM      5  C   UNL     1     -15.712  17.343 128.889  0.00  0.00    +0.024 A 
ATOM      6  C   UNL     1     -17.047  17.063 129.197  0.00  0.00    +0.002 A 
ATOM      7  C   UNL     1     -17.383  15.767 129.506  0.00  0.00    +0.001 A 
ATOM      8  C   UNL     1     -16.415  14.745 129.533  0.00  0.00    +0.015 A 
ATOM      9  C   UNL     1     -15.092  15.041 129.273  0.00  0.00    +0.058 A 
ATOM     10  C   UNL     1     -14.134  14.029 129.174  0.00  0.00    +0.254 C 
ATOM     11  O   UNL     1     -14.472  12.836 129.050  0.00  0.00    -0.270 OA
ATOM     12  N   UNL     1     -12.849  14.322 128.934  0.00  0.00    -0.244 N 
ENDROOT
BRANCH   1  19
ATOM     13  F   UNL     1      -9.837  15.432 129.708  0.00  0.00    -0.205 F 
ATOM     14  C   UNL     1     -10.616  15.791 130.647  0.00  0.00    +0.130 A 
ATOM     15  C   UNL     1     -10.116  15.994 131.928  0.00  0.00    +0.039 A 
ATOM     16  C   UNL     1     -10.941  16.357 132.977  0.00  0.00    +0.003 A 
ATOM     17  C   UNL     1     -12.297  16.550 132.711  0.00  0.00    +0.001 A 
ATOM     18  C   UNL     1     -12.813  16.320 131.417  0.00  0.00    +0.010 A 
ATOM     19  C   UNL     1     -11.962  15.961 130.350  0.00  0.00    +0.026 A 
ENDBRANCH   1  19
BRANCH  12  20
ATOM     20  C   UNL     1     -12.001  13.354 128.550  0.00  0.00    +0.039 A 
ATOM     21  C   UNL     1     -11.531  12.333 129.357  0.00  0.00    +0.023 A 
ATOM     22  C   UNL     1     -10.640  11.381 128.809  0.00  0.00    +0.002 A 
ATOM     23  C   UNL     1     -10.229  11.466 127.472  0.00  0.00    +0.000 A 
ATOM     24  C   UNL     1     -10.708  12.481 126.670  0.00  0.00    +0.002 A 
ATOM     25  C   UNL     1     -11.602  13.392 127.200  0.00  0.00    +0.023 A 
ENDBRANCH  12  20
TORSDOF 2
ENDMDL
MODEL 7
REMARK VINA RESULT:    -9.553      3.505      6.025
REMARK INTER + INTRA:         -10.895
REMARK INTER:                 -10.433
REMARK INTRA:                  -0.463
REMARK UNBOUND:                -0.226
REMARK  Name = P59
REMARK  2 active torsions:
REMARK  status: ('A' for Active; 'I' for Inactive)
REMARK    1  A    between atoms: C_7  and  C_8
REMARK    2  A    between atoms: N_18  and  C_19
REMARK                            x       y       z     vdW  Elec       q    Type
REMARK                         _______ _______ _______ _____ _____    ______ ____
ROOT
ATOM      1  C   UNL     1     -16.501  14.580 129.367  0.00  0.00    +0.200 C 
ATOM      2  N   UNL     1     -15.837  14.749 128.045  0.00  0.00    -0.321 N 
ATOM      3  H   UNL     1     -15.604  13.966 127.496  0.00  0.00    +0.148 HD
ATOM      4  C   UNL     1     -15.552  16.029 127.603  0.00  0.00    +0.041 A 
ATOM      5  C   UNL     1     -14.619  16.206 126.606  0.00  0.00    +0.024 A 
ATOM      6  C   UNL     1     -14.314  17.486 126.132  0.00  0.00    +0.002 A 
ATOM      7  C   UNL     1     -14.983  18.555 126.678  0.00  0.00    +0.001 A 
ATOM      8  C   UNL     1     -15.937  18.380 127.698  0.00  0.00    +0.015 A 
ATOM      9  C   UNL     1     -16.197  17.117 128.190  0.00  0.00    +0.058 A 
ATOM     10  C   UNL     1     -17.223  16.902 129.114  0.00  0.00    +0.254 C 
ATOM     11  O   UNL     1     -18.094  17.768 129.317  0.00  0.00    -0.270 OA
ATOM     12  N   UNL     1     -17.463  15.676 129.599  0.00  0.00    -0.244 N 
ENDROOT
BRANCH   1  19
ATOM     13  F   UNL     1     -16.832  12.992 131.453  0.00  0.00    -0.205 F 
ATOM     14  C   UNL     1     -15.797  13.730 131.494  0.00  0.00    +0.130 A 
ATOM     15  C   UNL     1     -14.942  13.671 132.588  0.00  0.00    +0.039 A 
ATOM     16  C   UNL     1     -13.823  14.481 132.674  0.00  0.00    +0.003 A 
ATOM     17  C   UNL     1     -13.551  15.343 131.613  0.00  0.00    +0.001 A 
ATOM     18  C   UNL     1     -14.431  15.424 130.511  0.00  0.00    +0.010 A 
ATOM     19  C   UNL     1     -15.564  14.586 130.426  0.00  0.00    +0.026 A 
ENDBRANCH   1  19
BRANCH  12  20
ATOM     20  C   UNL     1     -18.614  15.423 130.242  0.00  0.00    +0.039 A 
ATOM     21  C   UNL     1     -18.857  15.676 131.580  0.00  0.00    +0.023 A 
ATOM     22  C   UNL     1     -20.125  15.357 132.120  0.00  0.00    +0.002 A 
ATOM     23  C   UNL     1     -21.124  14.787 131.321  0.00  0.00    +0.000 A 
ATOM     24  C   UNL     1     -20.879  14.544 129.985  0.00  0.00    +0.002 A 
ATOM     25  C   UNL     1     -19.649  14.885 129.454  0.00  0.00    +0.023 A 
ENDBRANCH  12  20
TORSDOF 2
ENDMDL
MODEL 8
REMARK VINA RESULT:    -9.089      4.472      6.259
REMARK INTER + INTRA:         -10.377
REMARK INTER:                 -10.059
REMARK INTRA:                  -0.318
REMARK UNBOUND:                -0.226
REMARK  Name = P59
REMARK  2 active torsions:
REMARK  status: ('A' for Active; 'I' for Inactive)
REMARK    1  A    between atoms: C_7  and  C_8
REMARK    2  A    between atoms: N_18  and  C_19
REMARK                            x       y       z     vdW  Elec       q    Type
REMARK                         _______ _______ _______ _____ _____    ______ ____
ROOT
ATOM      1  C   UNL     1     -13.736  15.441 129.635  0.00  0.00    +0.200 C 
ATOM      2  N   UNL     1     -14.609  16.600 129.305  0.00  0.00    -0.321 N 
ATOM      3  H   UNL     1     -14.370  17.509 129.599  0.00  0.00    +0.148 HD
ATOM      4  C   UNL     1     -15.764  16.376 128.576  0.00  0.00    +0.041 A 
ATOM      5  C   UNL     1     -16.762  17.324 128.587  0.00  0.00    +0.024 A 
ATOM      6  C   UNL     1     -17.938  17.131 127.855  0.00  0.00    +0.002 A 
ATOM      7  C   UNL     1     -18.058  15.980 127.114  0.00  0.00    +0.001 A 
ATOM      8  C   UNL     1     -17.041  15.008 127.099  0.00  0.00    +0.015 A 
ATOM      9  C   UNL     1     -15.905  15.187 127.862  0.00  0.00    +0.058 A 
ATOM     10  C   UNL     1     -14.830  14.298 127.772  0.00  0.00    +0.254 C 
ATOM     11  O   UNL     1     -14.745  13.488 126.829  0.00  0.00    -0.270 OA
ATOM     12  N   UNL     1     -13.734  14.469 128.523  0.00  0.00    -0.244 N 
ENDROOT
BRANCH   1  19
ATOM     13  F   UNL     1     -12.009  14.764 131.519  0.00  0.00    -0.205 F 
ATOM     14  C   UNL     1     -13.218  14.443 131.752  0.00  0.00    +0.130 A 
ATOM     15  C   UNL     1     -13.547  13.775 132.925  0.00  0.00    +0.039 A 
ATOM     16  C   UNL     1     -14.848  13.388 133.195  0.00  0.00    +0.003 A 
ATOM     17  C   UNL     1     -15.837  13.715 132.269  0.00  0.00    +0.001 A 
ATOM     18  C   UNL     1     -15.503  14.371 131.063  0.00  0.00    +0.010 A 
ATOM     19  C   UNL     1     -14.175  14.773 130.802  0.00  0.00    +0.026 A 
ENDBRANCH   1  19
BRANCH  12  20
ATOM     20  C   UNL     1     -12.606  13.804 128.225  0.00  0.00    +0.039 A 
ATOM     21  C   UNL     1     -11.624  14.242 127.355  0.00  0.00    +0.023 A 
ATOM     22  C   UNL     1     -10.485  13.430 127.141  0.00  0.00    +0.002 A 
ATOM     23  C   UNL     1     -10.350  12.196 127.790  0.00  0.00    +0.000 A 
ATOM     24  C   UNL     1     -11.329  11.768 128.663  0.00  0.00    +0.002 A 
ATOM     25  C   UNL     1     -12.425  12.578 128.893  0.00  0.00    +0.023 A 
ENDBRANCH  12  20
TORSDOF 2
ENDMDL
MODEL 9
REMARK VINA RESULT:    -9.060      3.025      5.102
REMARK INTER + INTRA:         -10.345
REMARK INTER:                 -10.119
REMARK INTRA:                  -0.226
REMARK UNBOUND:                -0.226
REMARK  Name = P59
REMARK  2 active torsions:
REMARK  status: ('A' for Active; 'I' for Inactive)
REMARK    1  A    between atoms: C_7  and  C_8
REMARK    2  A    between atoms: N_18  and  C_19
REMARK                            x       y       z     vdW  Elec       q    Type
REMARK                         _______ _______ _______ _____ _____    ______ ____
ROOT
ATOM      1  C   UNL     1     -17.321  15.517 128.442  0.00  0.00    +0.200 C 
ATOM      2  N   UNL     1     -18.665  15.836 127.887  0.00  0.00    -0.321 N 
ATOM      3  H   UNL     1     -19.074  15.262 127.200  0.00  0.00    +0.148 HD
ATOM      4  C   UNL     1     -19.329  16.956 128.355  0.00  0.00    +0.041 A 
ATOM      5  C   UNL     1     -20.361  17.487 127.614  0.00  0.00    +0.024 A 
ATOM      6  C   UNL     1     -21.056  18.614 128.063  0.00  0.00    +0.002 A 
ATOM      7  C   UNL     1     -20.692  19.162 129.269  0.00  0.00    +0.001 A 
ATOM      8  C   UNL     1     -19.638  18.624 130.031  0.00  0.00    +0.015 A 
ATOM      9  C   UNL     1     -18.928  17.539 129.556  0.00  0.00    +0.058 A 
ATOM     10  C   UNL     1     -17.960  16.912 130.345  0.00  0.00    +0.254 C 
ATOM     11  O   UNL     1     -17.893  17.128 131.570  0.00  0.00    -0.270 OA
ATOM     12  N   UNL     1     -17.264  15.868 129.875  0.00  0.00    -0.244 N 
ENDROOT
BRANCH   1  19
ATOM     13  F   UNL     1     -15.057  14.315 127.798  0.00  0.00    -0.205 F 
ATOM     14  C   UNL     1     -15.132  15.541 127.466  0.00  0.00    +0.130 A 
ATOM     15  C   UNL     1     -14.065  16.156 126.822  0.00  0.00    +0.039 A 
ATOM     16  C   UNL     1     -14.106  17.494 126.474  0.00  0.00    +0.003 A 
ATOM     17  C   UNL     1     -15.267  18.212 126.756  0.00  0.00    +0.001 A 
ATOM     18  C   UNL     1     -16.344  17.598 127.433  0.00  0.00    +0.010 A 
ATOM     19  C   UNL     1     -16.298  16.230 127.774  0.00  0.00    +0.026 A 
ENDBRANCH   1  19
BRANCH  12  20
ATOM     20  C   UNL     1     -16.564  15.094 130.721  0.00  0.00    +0.039 A 
ATOM     21  C   UNL     1     -17.073  14.029 131.441  0.00  0.00    +0.023 A 
ATOM     22  C   UNL     1     -16.210  13.302 132.294  0.00  0.00    +0.002 A 
ATOM     23  C   UNL     1     -14.860  13.653 132.419  0.00  0.00    +0.000 A 
ATOM     24  C   UNL     1     -14.355  14.712 131.692  0.00  0.00    +0.002 A 
ATOM     25  C   UNL     1     -15.195  15.400 130.837  0.00  0.00    +0.023 A 
ENDBRANCH  12  20
TORSDOF 2
ENDMDL
